/*--------------------------------*- C++ -*----------------------------------*\
  =========                 |
  \\      /  F ield         | OpenFOAM: The Open Source CFD Toolbox
   \\    /   O peration     | Website:  https://openfoam.org
    \\  /    A nd           | Version:  9
     \\/     M anipulation  |
\*---------------------------------------------------------------------------*/
FoamFile
{
    format      ascii;
    class       polyBoundaryMesh;
    location    "constant/polyMesh";
    object      boundary;
}
// * * * * * * * * * * * * * * * * * * * * * * * * * * * * * * * * * * * * * //

7
(
    inlet
    {
        type            patch;
        nFaces          160;
        startFace       128384;
    }
    outlet
    {
        type            patch;
        nFaces          128;
        startFace       128544;
    }
    bottom
    {
        type            symmetryPlane;
        inGroups        List<word> 1(symmetryPlane);
        nFaces          96;
        startFace       128672;
    }
    top
    {
        type            symmetryPlane;
        inGroups        List<word> 1(symmetryPlane);
        nFaces          480;
        startFace       128768;
    }
    obstacle
    {
        type            symmetryPlane;
        inGroups        List<word> 1(symmetryPlane);
        nFaces          32;
        startFace       129248;
    }
    obstacleB
    {
        type            symmetryPlane;
        inGroups        List<word> 1(symmetryPlane);
        nFaces          384;
        startFace       129280;
    }
    defaultFaces
    {
        type            empty;
        inGroups        List<word> 1(empty);
        nFaces          129024;
        startFace       129664;
    }
)

// ************************************************************************* //
